<?xml version="1.0" encoding="UTF-8"?>

<!-- generated on 12/04/17 22:45:04 by SUMO duarouter Version 0.31.0
<?xml version="1.0" encoding="UTF-8"?>

<configuration xmlns:xsi="http://www.w3.org/2001/XMLSchema-instance" xsi:noNamespaceSchemaLocation="http://sumo.dlr.de/xsd/duarouterConfiguration.xsd">

    <input>
        <net-file value="test.net.xml"/>
        <route-files value="trips.trips.xml"/>
    </input>

    <output>
        <output-file value="result.rou.xml"/>
    </output>

    <processing>
        <ignore-errors value="true"/>
    </processing>

</configuration>
-->

<routes xmlns:xsi="http://www.w3.org/2001/XMLSchema-instance" xsi:noNamespaceSchemaLocation="http://sumo.dlr.de/xsd/routes_file.xsd">
    <vType id="evehicle" vClass="evehicle"/>
    <vehicle id="0" type="evehicle" depart="0.00">
        <route edges="157393607#8 157393607#9 157393607#10 157393607#12 94587479#0 94587479#2 343200134#0 343200134#1 4003444#0 343200137#0 24257357#0 24257216#0 343200138#0 32021856#0 32021856#2 5078965#0 32021863#0 -353397643 4919992#0 61751606#0 32021870 143943669#0 32021871#0 85325828 313684450 76566358#0 313588007#0 166404994 313588009#0 313588008 313588011#0 205620237#0 313598786 313598782#0 317695765#0 317695764#0 24476907 51844785#0 317695764#6 317695764#10 155798957#1 49612855#0 9619005#0 9619005#2 155723667#2 155723667#3 -155723645#5 -155723645#0 155723646#0 155723646#1 155723646#2 133374887#0 155723687 155723634"/>
    </vehicle>
    <vehicle id="1" type="evehicle" depart="1.00">
        <route edges="157383256#1 150896943#22 150896943#23 150896943#25 -53048585 53048587#0 53048587#1 -99189283#3 -99189283#2 -27460489#3 -27460489#1 -331512936#11 -331512936#6 -331512941#2 -331512938 -32021879#12 -32021879#9 -32021879#7 -32021879#6 -32021879#5 -32021879#4 -32021879#3 -32021879#1 -75642184 -29097289#1 50848194#0 50848194#4 -4228651#1 -201427622 201427624 -314304776 -260094540#1 -35094936#1 -35094936#0 35094937#0 35094937#1 35094937#2 35094937#4 -51240797#5 -51240797#4 -51240797#2 -51240797#1 -51240797#0 -258844226 -52437671 -165995262 166476872 166476873#0 166476873#1 166476873#4 166476873#5 52350124#0 22740714 155563747 28333494#0 132653975#0 349776626 4936487#0 4936487#1 -4936487#1"/>
    </vehicle>
    <vehicle id="2" type="evehicle" depart="2.00">
        <route edges="-155798954#0 148180147#2 69565654#4 69565654#1 69565642#0 28700286 349766552 349766551#0 349766551#2 349764788#0 22917767#0 349762013 349762012#1 155723651#0 50937076#0 50937076#1 50937076#2 49612856 49612857#0 155798960#0 186642601#0 186642601#3 186642601#5 313598780#0 313598785#0 313598785#2 26207273 313598778#0 313598778#1 131385252#3 313588010#0 205620245#0 20879214#1 5077407 5552874 4218820 62081149#0 62081149#1 62081145#0 62081151#2 322459554 322459556 321455268 34134571#0 321451885 200810718#0 234895921#0 -234895921#1 -36590982#1 36590983#0 36590983#2 272288774 36590984#0 36590984#1 36590984#2 60342000#0 54609701 27404839#0 27404839#1 27404839#2 29319045#0 29319045#1 27115123#0 27115123#1 27115123#2 27115123#3 32324544#0 32324544#2 144599476 31557255#0 319929498#0 319929498#2 319929498#3 319929498#4 319929498#5 -319929497#2 -319929497#1 -319929497#0 -319929495#1 -319929495#0 -319929496 -31722685#2 4045258#0 4045258#5 31973375#0 150031299#1 150031299#4 150031299#6 -24326599#4 -24326599#2 -24326599#1 -31113883#5 -31113883#4 -31113883#3 -31113883#2 -31113883#1 -145127856#4 -145127856#3 -145127856#2 8093269#0 31255180#1 30779824 44502616#3 44502616#5 47893879#0"/>
    </vehicle>
    <vehicle id="3" type="evehicle" depart="3.00">
        <route edges="-4936487#1 -4936487#0 155563750#0 349776630#0 349776630#1 132653976 132653973 4936380#0 4936380#2 28367054 132951110#0 132653970#0 -22740714 -52350124#1 -166476873#6 -166476873#4 -166476873#3 -166476873#0 149633123 52437672 165995262 52437671 -99152178#1 -99152178#0 -80344009#8 -80344009#6 -80344009#5 -80344009#3 -80344009#2 -52282312 160146397 20427460#0 20427460#1 52282311#0 -34635529#11 -34635529#9 -34635529#8 -34635529#5 -34635529#2 -34635529#1 34635529#0"/>
    </vehicle>
    <vehicle id="4" type="evehicle" depart="4.00">
        <route edges="27290865#0 32038319#0 32021298 23429231#1 32038051#0 32038051#2 254959489 254959686#0 289753604 27115122#0 255094956#0 255094956#1 2936806#0 113160347#0 113160347#1 255104326 51681577#1 321451886 321451887#0 198182234#0 306548771 321451888#0 321451888#3 30767420#0 30767420#2 321456988#0 321456991#0 321456991#2 322459553 168898881#0 260192889 41676631 245123471 5069544 24477641 220567384 30746501 5552871 8054393 154842213 278328109 5367038 338165603 338165599 51240791#0 -51240788 -51240796#1 20790509#0 20790509#1 -22891669 -22891631#6 -22891634"/>
    </vehicle>
    <vehicle id="5" type="evehicle" depart="5.00">
        <route edges="82878588#0 82878588#1 151069478 165975104#6 303246755#0 6187381#0 6187381#1 6187381#3 6187381#5 6187381#8 6187381#9 144886434#0 144886434#2 159165389 203999797#0 147726286 38028022 90439687 203486082 330663743#0 200763473 170319721#0 33386769#0 33444803 39606300 33302833 147144449 25071938#0 154755085#0 4400311#0 23493260#4 23493260#7 303244426 4400319"/>
    </vehicle>
    <vehicle id="6" type="evehicle" depart="6.00">
        <route edges="154548975#6 32636009#0 32636009#1 32636009#3 32636009#5 32636009#6 32636601#0 4229580#0 206146753#0 206146753#2 4071597#0 27462372#0 13538161 13538552 37060590 30326906#5 31721950#0 31721950#1 31721950#4 -4145970#3 -4145970#2 -4145970#1 -4145970#0 36975983 153237706 57017507#0 32021295#2 32021295#3 144622875#0 144622875#2 32038320#0 32038319#0 32021298 23429231#1 32038051#0 32038051#2 254959489 254959686#0 289753604 27115122#0 255094956#0 255094956#1 2936806#0 113160347#0 113160347#1 255104326 51681577#1 321451886 321451887#0 198182234#0 306548771 321451888#0 321451888#3 30767420#0 30767420#2 321456988#0 321456991#0 321456991#2 322459553 168898881#0 260192889 41676631 245123471 5069544 24477641 220567384 30746501 5552871 8054393 154842213 278328109 8054394 328980682 328980685 253093567 328984619 302370855 302370855-AddedOffRampEdge 155444200 155444215 325861956 155444221#0 156149779 325861948 156149782#0 156057537#2 156057525 156149065#0 156149065#2 156149065#3 156149065#5 156149065#6 62224624#2 62224624#4 21000415#0 22670341#0 22670341#1 22670341#2 -28577901#2 223669632#0 24342872#0 24342872#2 24342872#3 24342872#5 24342872#7 24342872#8 24342872#9 24434894#0"/>
    </vehicle>
    <vehicle id="7" type="evehicle" depart="7.00">
        <route edges="4045263#1 4045263#2 4045263#3 319929495#0 319929495#1 319929497#0 319929497#1 319929497#2 -319929498#5 -319929498#4 -319929498#3 -319929498#2 -319929498#1 27290861 144615436#1 8096208 32037433 32020965 219018762#1 219018761 206080341#0 -37347656 27404213#0 118041104#0 115106778#2 115106778#3 26784170#0 26784170#3 154502579#0 27115018 198171539#0 198171539#2 169453887#0 145345138#0 203972098 4400324#0 169453889 203971501 10318488#0 4400322#0 39606301 189054412 78419224#1 78419226#0 78419226#2 78419226#3 5667170 200763473 33444804#0 -175607927#1 -175607927#0 -29214406"/>
    </vehicle>
    <vehicle id="8" type="evehicle" depart="8.00">
        <route edges="55421610 6240628#0 166354227 32021877#0 32021877#3 50848194#0 50848194#4 -4228651#1 -201427622 89523831#0 128524711 128524712#1 128524710 128524709#0 128524709#5 128524709#7 128524709#9 27467909 245122333#0 245122333#2 62081151#2 322459554 322459556 321455268 34134571#0 321451885 200810718#0 234895921#0 -234895921#1 -36590982#1 36590983#0 36590983#2 272288774 36590984#0 36590984#1 36590984#2 60342000#0 54609701 27404839#0 27404839#1 27404839#2 4146869#0 -340337295#3 -28523868#4 -4045316#2 130165207#1 130165208#0 32038441 -28198797#1 -28198797#0 4146755#0 4146756#0 37191915#0 130147329#0"/>
    </vehicle>
    <vehicle id="9" type="evehicle" depart="9.00">
        <route edges="5069540#0 226991211 24024442 86144284 22740714 -22740714 -135556225 -24024442 24024441#0 24024441#1 326731915 5069545 326732246 326732245#0 245123472 53094245 4920032#0 219242292 62081149#0 62081149#1 62081145#0 62081151#2 322459554 322459556 321455268 34134571#0 321451885 200810718#0 234895921#0 -234895921#1 -36590982#1 36590983#0 36590983#2 272288774 36590984#0 36590984#1 36590984#2 60342000#0 54609701 27404839#0 27404839#1 27404839#2 29319045#0 29319045#1 27115123#0 27115123#1 27115123#2 27115123#3 32324544#0 32324544#2 144599476 31557255#0 319929498#0 319929498#2 319929498#3 319929498#4 319929498#5 -319929497#2 -319929497#1 -319929497#0 -319929495#1 -319929495#0 -319929496 -31722685#2 4045258#0 4045258#5 31973375#0 150031299#1 150031299#4 150031299#6 -24326599#4 -24326599#2 -24326599#1 -31113883#5 -31113883#4 -31113883#3 -31113883#2 -31113883#1 -145127856#4 -145127856#3 -145127856#2 44498588#9 31972035#0 -81975143#3 -81975139 -81975138 -81974524 -81974522 -81974523 -36901735 -157862137 -43687631#1 -43687630 -43687633 -4044270#2 8132936#0 -22769286#8 91757249#3"/>
    </vehicle>
    <vehicle id="10" type="evehicle" depart="10.00">
        <route edges="61500651#0 164930210#5 164930210#6 164930210#7 49773707#0 -22690835#5 24348761#1 39947121#0 -62224624#4 -62224624#3 -62224624#0 -156149065#5 -156149065#4 -156149065#2 -156149065#1 56743835#0 56743835#1 55289622#3 -27634146#1 -49875616#0 -156364202 156364201 156378772#0 326757795 326757805 -156364199 156364196#0 325861947 198988755 157747210 155444213#1 219698235 302370856 325863620 278327345 286321028 328980686 328980686-AddedOffRampEdge 253093566 25698361 328980684 278328108 11624006 80266375 5077407 5552874 4218820 62081149#0 62081149#1 62081145#0 62081151#2 322459554 322459556 321455268 34134571#0 321451885 200810718#0 234895921#0 -234895921#1 -36590982#1 36590983#0 36590983#2 272288774 36590984#0 36590984#1 36590984#2 60342000#0 54609701 27404839#0 27404839#1 27404839#2 29319045#0 29319045#1 27115123#0 27115123#1 27115123#2 27115123#3 32324544#0 32324544#2 144599476 31557255#0 36227986#0 36227986#4 34962532#0 32040978#0 27355187#0 31722070#1 31722070#3 198353850#0 198353850#2 198353850#5 -27462504#7 -27462504#6 -27462504#5 13538011#0 13538011#1 -13538552 13538164 230894223#2 230894223#3 226371402#3 -121858486#5 -121858486#4 -121858486#3 -121858486#2 24464113 27461487#9 27461487#10 -36252601 -24449403#2"/>
    </vehicle>
    <vehicle id="11" type="evehicle" depart="11.00">
        <route edges="5367042 198350766#1 22598810#2 338165586 338165576 198350768#0 198350768#1 8054399 5367048 328980688 328980687 25698361 328980684 5367033 328980689 278328110#0 205620237#0 313598786 313598782#0 317695765#0 317695764#0 24476907 51844785#0 317695764#6 317695764#10 155798957#1 49612855#0 9619005#0 9619005#2 155723667#2 155723667#3 -155723645#5 -155723645#0 155723646#0 155723646#1 155723646#2 133374887#0 133374887#1 133374887#2 133374887#4 155424464#1 -155428550#2 -155428550#0 -194017225#11 194017225#10"/>
    </vehicle>
    <vehicle id="12" type="evehicle" depart="12.00">
        <route edges="8093818#3 8093818#4 8093820#2 8093820#3 -8101300#2 -8101302#2 -43518915#3 -43518915#1 -8101306#1 -36975982#2 -147008095 8093484#0 23354120#4 23354120#5 147008098#0 -36975976#2 -23354077#1 -43521457#3 -35151455 -31255180#0 44498588#9 31972035#0 124760628#0 81975346 4044268#0 4044268#2 31972340#2 31972340#5 31972340#6 226417965#0 31721945 30326906#0 30326906#1 30326906#3 30326906#5 31721950#0 31721950#1 31721950#4 31721950#6 31721950#9 57017440#0 91012538#1 58811853#0 340443759 340443763 32635130 340443765 340443767 340443764#0 -32635135#2 -28841605 4045161 150594022#2 150594021#0 4045164#0 115106778#2 115106778#3 26784170#0 26784170#3 154502579#0 27115018 198171539#0 198171539#2 169453887#0 145345138#0 203972098 4400324#0 169453889 203971501 10318488#0 4400322#0 39606301 189054412 78419224#1 78419226#0 78419226#2 78419226#3 5667170 328877108#0 328877086#3 23574788 24231766 48654842 24231648 200774391 200774785#0 200774785#1 326979311 22887858 100138692 6187383#1 6187383#2 201168470 144886433#0 144886433#1 144886432#0 186461131#0 8203277#0 8203277#1 23795218#1 194017401#0"/>
    </vehicle>
    <vehicle id="13" type="evehicle" depart="13.00">
        <route edges="-27332387 27332388 24464680#1 27332389 27332393#1 27332393#3 184285348#0 184285348#2 32636601#0 4229580#0 206146753#0 206146753#2 4071597#0 230894223#0 230894223#2 230894223#3 230894223#4 230894223#7 9617900#0 31721947#0 31721947#4 31722676#0 31722677#0 31722677#2 31722677#4 31722682#0 31722682#1 -31722685#2 -23902298#4 23902294#0 163695735 -23902291#2 -23902291#1"/>
    </vehicle>
    <vehicle id="14" type="evehicle" depart="14.00">
        <route edges="4877878#0 149402035#0 -4872335#2 32021859#1 343200139#0 343200139#3 343200139#4 -34951550#1 -34951550#0 254565291#0 272288779#0 256056340#0 36590984#0 36590984#1 36590984#2 60342000#0 54609701 27404839#0 27404839#1 27404839#2 29319045#0 29319045#1 27115123#0 27115123#1 27115123#2 27115123#3 32324544#0 32324544#2 144599476 31557255#0 36227986#0 36227986#4 34962532#0 32040978#0 27355187#0 31722070#1 31722070#3 198353850#0 198353850#2 198353850#5 -27462504#7 -27462504#6 -27462504#5 13538011#0 13538011#1 -13538552 13538164 230894223#2 230894223#3 226371402#3 -121858486#5 121858486#5"/>
    </vehicle>
    <vehicle id="15" type="evehicle" depart="15.00">
        <route edges="8266564#1 -26751739#4 -26751739#2 -26751739#0 26751740#1 157393607#0 157393607#3 -205994318#3 -205994318#0 -196120579#3 -196120579#2 47313732#0 47313732#5 47313732#6 32021841#0 32021843#0 32021843#3 51857078#0 51857078#2 160312590#0 160312590#1 160312590#2 322456246 25606745#0 322456245 322456250#0 150031245#0 47426157 115106779#0 -28523795#1 -32064261#1 -32064260#5 -32064260#3 -32064260#2 -219098056 219098057#0 206080341#0 -37347656 27404213#0 210836330#0 150031260#0 32011637#0 32011637#2 150031253#0 186608627 154502580#0 154502580#1 154502580#2 37276378#0 202849696#0 34998402#0 34998402#1 34998402#3 23013526 -22598780#1 51827455#5 51981837 51981838#1 51981838#2 154511597#0 203284218#5 203284218#6 203284218#9 203284218#10 203284218#11 7990006#0 37874850#0 37874850#1 41496791#0 154511606#0"/>
    </vehicle>
    <vehicle id="16" type="evehicle" depart="16.00">
        <route edges="25676950 -25150477#3 -25150477#0 61881651#0 61881651#2 -243977548 -154513850#4 -154513850#3 -154513850#1 -25445679 -156593383#2 156593383#1"/>
    </vehicle>
    <vehicle id="17" type="evehicle" depart="17.00">
        <route edges="24435411#1 -24435411#1 -24435411#0 28577905#9 28577905#11 28577905#14 21753479#0 21753477#1 156057561#0 231988068#0 52004020#0 52004020#1 52004020#2 -56743942#1 -51730932#2 -51730932#1 51730933#0 51730935#0 338165609 338165612 157187824 5367046#0 51730840 5367040 198350768#1 8054399 5367048 328980688 328980687 25698361 328980684 278328108 11624006 80266375 5077407 5552874 4218820 62081149#0 62081149#1 62081145#0 62081151#2 322459554 322459556 321455268 34134571#0 321451885 200810718#0 234895921#0 -234895921#1 -36590982#1 36590983#0 36590983#2 272288774 36590984#0 36590984#1 36590984#2 60342000#0 54609701 27404839#0 27404839#1 27404839#2 29319045#0 29319045#1 27115123#0 27115123#1 27115123#2 27115123#3 32324544#0 32324544#2 144599476 31557255#0 319929498#0 319929498#2 319929498#3 319929498#4 319929498#5 -319929497#2 -319929497#1 -319929497#0 -319929495#1 -319929495#0 -319929496 -31722685#2 4045258#0 4045258#5 31973375#0 150031299#1 150031299#4 150031299#6 -24326599#4 -24326599#2 -24326599#1 -31113883#5 -31113883#4 -31113883#3 -31113883#2 -31113883#1 -145127856#4 -145127856#3 -145127856#2 44498588#9 31972035#0 -81975143#3 -81975139 -81975138 -81974524 -81974522 -81974523 -36901735 -157862137 -43687631#1 -43687630 -43687633 -90430103#2 -30738629#0 25626112#0"/>
    </vehicle>
    <vehicle id="18" type="evehicle" depart="18.00">
        <route edges="318067901#0 245991949#0 301750520#1 250959563#0 115849681#0 250959560 37873580#2 37873577 24037709#0 41836764 288162962#0 37744229 155570075#0 155570075#2 16367664 171948481 111465046#0 156976894#0 156976894#2 39519027#0 39519027#1 39519027#2 23686464#0 -141206207 -141206211 -141241832#3 -141241832#0 141206202 141241836#1 6187383#2 201168470 144886433#0 144886433#1 144886432#0 186461131#0 6186296 6186304#1 51898857#0 28331370#0 -188066433#2 -188066433#0 -4936454 4936414#1 298367344 282758877#1 282758877#2 295644515 295644518#0 295644518#1 295644519#1 32260366#0 32260366#2 297011911 297011921#0 155424469 297011923#1 -297011920#1 -297011920#0 -155428551#4 -155428551#2 -155428551#1 -4936412 23686088#0 23686088#1 133081987#0 133081987#3 133081985#0 133081985#1 28675510#0 28675510#1 28675510#4 28675510#7 297047306#0 164962474 164930215 -23860555#4 -23860555#2 22917589#0 52520378#2 52520377 28700198#0 28700198#2 28700198#5 28700198#6 28947227#0 28947227#1 -69565642#1 69565654#2 69565644 69565657#0 22644196 344004077#1 22644185 -69565662#1 -69565662#0 69565670#1 -28947034 28947050#0 155798950#0 -155798979"/>
    </vehicle>
    <vehicle id="20" type="evehicle" depart="20.00">
        <route edges="8101225#4 8101225#8 22769286#1 22769286#3 22769286#5 8132936#5 36901733#0 362486822 29207613#1 29207613#3 29207613#4 81974000#0 -10376030#4 -25626112#3 -25626112#2 -25626112#1"/>
    </vehicle>
    <vehicle id="21" type="evehicle" depart="21.00">
        <route edges="151057658 -205996114#1 23714486#0 37276365#0 37276365#1 66389908#0 66389908#2 201673478#0 -154738024 107709267#1 -6186579#1 213185325#5 151057637#2 31691107 185767958#1 36454807 313981599#0 313981598#0 150031205#0 145474195#0 4380937#0 4380937#2 4380937#3 145575263#0 53265910#0 186465744 4045160#0 42999417#0 42999417#2 28841605 32635135#0 28554623 32635133 340443768#0 57017442#0 91012543 32043015#0 158372035#0 32043014#0"/>
    </vehicle>
    <vehicle id="22" type="evehicle" depart="22.00">
        <route edges="22598805#4 20794501 58530977#0 338165576 198350768#0 198350768#1 8054399 5367048 328980688 328980687 25698361 328980684 278328108 11624006 80266375 5077407 5552874 4218820 62081149#0 62081149#1 62081145#0 62081151#2 322459554 322459556 321455268 34134571#0 321451885 200810718#0 234895921#0 -234895921#1 -36590982#1 36590983#0 36590983#2 272288774 36590984#0 36590984#1 36590984#2 60342000#0 150031245#0 47426157 28542886#0 28542886#1 28542886#2 166222937#0 150031230#2 150031230#3 150031207#1"/>
    </vehicle>
    <vehicle id="23" type="evehicle" depart="23.00">
        <route edges="6187381#0 6187381#1 6187381#3 6187381#5 6187381#8 6187381#9 144886434#0 144886434#2 159165389 326979312#0 151054056 186453004#0 185273679 203847849#1 203847849#2 151057614#0 151057614#2 144463421 204001545 204001555#0 23543117#0 23714484 151060320#0 151060320#2 138554892#1 4218807#0 4391287#0 322459559 166045376 322459557 322459558#0 62081151#2 322459554 322459556 321455268 34134571#0 321451885 200810718#0 234895921#0 -234895921#1 -36590982#1 36590983#0 36590983#2 272288774 36590984#0 36590984#1 36590984#2 4146736#0 32857154 322456249#2 322456244#2 260714008#0 32021838#0 157393119#0 157393119#3 157393119#4 157393117#0 157393134#0 157393134#2 157393134#3 157393134#4 157393134#5 157393134#6 157393134#7 22921228"/>
    </vehicle>
    <vehicle id="24" type="evehicle" depart="24.00">
        <route edges="4089371 32041423#0 32041423#1 32041423#5 31536989 32041422#0 32041422#1 -27462504#7 -27462504#6 -27462504#5 -27462504#4 -27462504#3 -27462504#1 -27462504#0 -24465915#1 -27661369 -32390175#9 -32390175#7 24449294#0 -261143346 261143345 36714413#0 24686876#0 24686876#1 32390177#1 272345750#0 32621361#0 32621361#3 173491254 170040383 22822132#0 22822132#3 22822132#5 61881651#0 61881651#2 -193546035#1 31675885 203284213 203284211 122964252 234123267"/>
    </vehicle>
    <vehicle id="25" type="evehicle" depart="25.00">
        <route edges="-24449294#1 24449294#0 -261143346 261143345 36714413#0 36714413#1 54856353#0 54856353#2 54856353#3 173282746#0 173282746#1 173282746#3 -8195822#9 -8195822#6 -8195822#4 173282738#0 150031197#4 150031197#5 150031197#6 150031197#7 173282740 -37637984 8195774 25101965#0 25101965#4 25101966 24693845#0 24693845#1 154502572#5 -10212091#2 23015813#0 329890956 27115018 198171539#0 198171539#2 169453887#0 145345138#0 145345138#1 315921077#0 315921077#1 -315921078#2 -219188460#0 -154755109 -202654192 -63566383 -30095780#1"/>
    </vehicle>
    <vehicle id="26" type="evehicle" depart="26.00">
        <route edges="33219862#2 -33219862#2 -33219862#1 319929497#0 319929497#1 319929497#2 -319929498#5 -319929498#4 -319929498#3 -319929498#2 -319929498#1 32038320#0 32038319#0 32021298 23429231#1 32038051#0 32038051#2 254959489 254959686#0 289753604 27115122#0 255094956#0 255094956#1 2936806#0 113160347#0 113160347#1 255104326 51681577#1 321451886 321451887#0 198182234#0 306548771 321451888#0 321451888#3 30767420#0 30767420#2 321456988#0 321456991#0 321456991#2 322459553 168898881#0 260192889 41676631 245123471 5069544 24477641 220567384 30746501 5552871 8054393 154842213 278328109 5367038 338165603 338165599 94587498#0 51730934#0 51730932#0 51730932#2 56743942#0 52004019#0 52004019#3 52004019#4 52004019#5 -231988068#2 231988067#0 -21753477#2 -21753477#0 -28577905#14 -28577905#13 22914705#0 22914705#1 22914705#2 22914705#3 22914705#4 22914705#5 -24512120#9 -24512120#7 -24512120#3 203117478#4 -24674274#3 -24674274#1 -24674927 -24674295#0"/>
    </vehicle>
    <vehicle id="27" type="evehicle" depart="27.00">
        <route edges="28889303#3 219429246#0 257534607 349603486#0 185767960 31691107 185767958#1 36454807 313981599#0 313981598#0 150031205#0 145474195#0 4380937#0 4380937#2 4380937#3 145575263#0 53265910#0 186465744 4045160#0 42999417#0 42999417#2 28841605 32635135#0 28554623 32635133 340443768#0 57017442#0 91012543 32043015#0 31722070#0 31722070#1 31722070#3 198353850#0 198353850#2 198353850#5 32253493#0 32253493#4 32253493#5 30995237#0 31721947#0 31721947#4 31973373 -31973373 -31973372 -24326599#4 -24326599#2 -24326599#1 -31113883#5 -31113883#4 -31113883#3 -31113883#2 -31113883#1 -145127856#4 -145127856#3 -145127856#2 44498588#9 31972035#0 -81975143#3 -81975139 -81975138 -81974524 -81974522 -81974523 -36901735 -157862137 -43687631#1 -43687630 -43687633 -90430103#2 -30738629#0 25626112#0 -35106452#1 -35106452#0"/>
    </vehicle>
    <vehicle id="28" type="evehicle" depart="28.00">
        <route edges="157393611 157393596#1 -205994318#0 -196120579#3 -196120579#2 47313732#0 47313732#5 47313732#6 32021841#0 32021843#0 32021843#3 51857078#0 51857078#2 160312590#0 160312590#1 160312590#2 322456246 25606745#0 322456245 322456250#0 2936806#0 113160347#0 113160347#1 255104326 51681577#1 321451886 321451887#0 198182234#0 306548771 321451888#0 321451888#3 30767420#0 30767420#2 321456988#0 321456991#0 321456991#2 322459553 168898881#0 260192889 41676631 245123471 5069544 245123473 5069540#0 226991211 24024442 86144284 22740714 155563747 208424304#0 132653971 132653972#0 76128219#0 76128219#2 295644518#1 295644519#1 32260366#0 32260366#2 297011911 297011921#0 155424469 297011923#1 -297011920#1 -297011920#0"/>
    </vehicle>
    <vehicle id="29" type="evehicle" depart="29.00">
        <route edges="25445056#0 -25445056#1 -150222620#4 150222610#0 150222610#2 150222610#3 150222610#5 27815919#0 252966081#0 252966081#1 36303932#1 36303932#3 8196649#0 132514084#0 132514084#1 132514084#2 8196637#0 -22565268#1 8196591#0 137828123 57017440#0 91012538#1 8196572#0 57017442#0 91012543 32043015#0 158372035#0 32043014#0 32021295#2 32021295#3 144622875#0 144622875#2 32038320#0 32038319#0 32021298 23429231#1 -28198821#4 -28198821#2 -28198821#1 130165205#0 130165207#0 130165207#1 -130165209#1 -241660955#17 -241660955#16 -241660955#13 -41910184 -173492581 -5004994#1 -34867908 -5004999#4 -5004999#3 -5004999#2 319261593#5 319261593#7 -5229969#1"/>
    </vehicle>
    <vehicle id="30" type="evehicle" depart="30.00">
        <route edges="-25676946#1 25676946#1 24449421#1 42567476 25676942 217129663 8196047#0 8196047#2 36303932#1 36303932#3 132514085#0 32621362#0 272345749#0 225067588#0 225067588#1 225067588#2 32390176#0 24464014#0 24464014#2 24464014#4 24464014#5 36714414#0 24464015#0 24464015#3 24464015#6 24464015#8 206146753#0 206146753#2 4071597#0 230894223#0 230894223#2 230894223#3 226371402#3 -121858486#5 24464122#0 121161073"/>
    </vehicle>
    <vehicle id="31" type="evehicle" depart="31.00">
        <route edges="22949995 332017311 219188460#1 154755110 86415860#0 86415860#1 88680005#0 203971499#0 203971501 4400318#0 4400318#3 48591635#0 23568429 48591634 50557487 188052918#1 154755085#0 154755085#1 83703645 23493040 23493177#0 326986553 154755115#0 154755115#2 23493179 50629722 129833340#2 129833341#0 129833339#1 129833347 59641740 2829323#0 32856811#0 32856811#1 32856811#2 28542897#0 28542897#1 4146734#0 321899440 113160347#0 113160347#1 255104326 254565590#2 254565589 254565233 34951550#0 23948551 34951550#2 -343200139#3 -343200139#2 -32021859#1 -32021859#0 -343200135 -343200136 -343200138#1 -24257216#1 -24257357#1 -343200137#1 -4003444#1 -325447372#7 -325447372#6 -325447372#1 -325447373#1 -157410547 -325447374#0 -75642193#1 20446486 325325158 325325159 325325157 325325156#0 325325156#2 -20446586#1 20441289#0 20441289#2 -49525386 -20683311#2"/>
    </vehicle>
    <vehicle id="32" type="evehicle" depart="32.00">
        <route edges="-30880189#1 32636009#1 32636009#3 32636009#5 32636009#6 32636601#0 4229580#0 206146753#0 206146753#2 4071597#0 230894223#0 230894223#2 230894223#3 230894223#4 230894223#7 9617900#0 31721947#0 31721947#4 31722676#0 31722677#0 31722677#2 31722677#4 31722682#0 31722682#1 -31722685#2 -23902298#4 23902294#0 163695735"/>
    </vehicle>
    <vehicle id="33" type="evehicle" depart="33.00">
        <route edges="32011637#0 32011637#2 150031253#0 186608627 154502580#0 154502580#1 154502580#2 37276378#0 130734295#1 8195833 217129665#0 37331987#0 217129663 22822132#0 22822132#3 22822132#5 61881651#0 61881651#2 -193546035#1 31675885 203284213 203284211 122964252 -223766620#8"/>
    </vehicle>
    <vehicle id="34" type="evehicle" depart="34.00">
        <route edges="8196681#4 -8196681#4 -8196681#3 41770576#1 154502580#2 37276378#0 202849696#0 34998402#0 34998402#1 34998402#3 34998402#4 34998402#5 34998402#6 34998402#7 34998405 37873571#0 203972098 4400324#0 169453889 203971501 10318488#0 4400322#0 39606301 189054412 78419224#1 78419226#0 78419226#2 78419226#3 5667170 328877108#0 328877086#3 23574788 24231766 48654842 24231648 200774391 200774785#0 200774785#1 326979311 22887858 100138692 6187383#1 6187383#2 201168470 144886433#0 144886433#1 144886432#0 186461131#0 6186296 6186304#1 51898857#0 28331370#0 -188066433#2 -188066433#0 -4936454 4936414#1 298367344 282758877#1 282758877#2 295644515 295644518#0 295644518#1 295644519#1 32260366#0 32260366#2 297011911 297011921#0 155424469 297011923#1 -297011920#1 -297011920#0 -155428551#4 -155428551#2 -155428551#1 -4936412 23686088#0 23686088#1 133081987#0 133081987#3 133081985#0 133081985#1 28675510#0 28675510#1 28675510#4 28675510#7 297047306#0 164962474 164930215 -23860555#4 -23860555#2 22917589#0 52520378#2 52520377 28700198#0 28700198#2 28700198#5 28700198#6 28947227#0 28947227#1 -69565642#1 69565654#2 69565644 69565657#0 22644196 344004077#1 22644185 -69565662#1 -69565662#0 69565670#1 69565670#2 69565666#0 311257126#1 311257126#2 311257126#3 24500212#0 -225260680#0 28946126#5 28946126#6 28946126#7 28946126#8 27356380 49854342#1 346664898 156173981#0 346664903#0 156174000#0 -25480681 186896971 49140616 49436560 49436081 8204013 25402400#0 25402400#1 260670868#0 260670868#1 260670868#5 260670867#0 -8204012#2 -134074458#22 -26931621#8 -26931621#7 -26931621#2 -26931594#6 -26931594#4 26931593#0 -26931592#5 26931592#0"/>
    </vehicle>
    <vehicle id="35" type="evehicle" depart="35.00">
        <route edges="343200138#0 32021857 343200135 32021859#0 32021859#1 343200139#0 343200139#3 343200139#4 -34951550#1 -34951550#0 254565291#0 272288779#0 256056340#0 36590984#0 36590984#1 36590984#2 60342000#0 150031245#0 47426157 28542886#0 28542886#1 28542886#2 166222937#0 145474195#0 -167324659"/>
    </vehicle>
    <vehicle id="36" type="evehicle" depart="36.00">
        <route edges="-23691437#1 -155428548#1 59458722#0 155422547 23684408#0 203090657 295516779 32260365 76128220#0 349777921#0 132653969 132653970#0 -22740714 -135556225 -24024442 24024441#0 24024441#1 326731915 5069545 326732246 326732245#0 245123472 53094245 4920032#0 219242292 62081149#0 62081149#1 62081145#0 62081151#2 322459554 322459556 321455268 34134571#0 321451885 200810718#0 234895921#0 -234895921#1 -36590982#1 36590983#0 36590983#2 272288774 36590984#0 4882054#0 4882052 33846013 4882042#1"/>
    </vehicle>
    <vehicle id="37" type="evehicle" depart="37.00">
        <route edges="-24001999#4 -24001999#1 -24001999#0 24466280#21 -4020389#1 -24001991#1 -24001991#0 204007997#3 204007997#4 204007997#5 204007997#6 204007997#7 204007997#8 204007997#9 204007997#10 204007997#11 74889297#0 74889297#1 74889294#0 74889294#1 -232876346#3 -23222613#5 105002542#0 105002542#1 -4003447#4 -4003447#3 -4003447#2 -4003447#1 196120579#0 196120579#3 205994318#0 205994318#2 225700794#0 225700794#1 157097806#0 5057255#0 5057255#3 5057255#4 5057255#8 132524622#0 132524622#1 132524623"/>
    </vehicle>
    <vehicle id="38" type="evehicle" depart="38.00">
        <route edges="156163355#0 260714006 -150675111#0 59213774 59175698 94587446 21754164 94587496 20428129#0 20428129#2 20428129#3 20428129#4 51240796#0 51240788 51240789#0 51730935#0 338165609 338165612 157187824 5367046#0 51730840 5367040 198350768#1 8054399 5367048 328980688 328980687 25698361 328980684 278328108 11624006 80266375 5077407 5552874 4218820 62081149#0 62081149#1 62081145#0 62081151#2 322459554 322459556 340434106 -145575264 145575264 203488467#0 23694990 180713693#0 321455269 254937880 56454981 30767194#0 30767194#3 110520973 30767370#2 36590980 9207801 147549213 9207800#0 28889303#0 28889303#3 180723491"/>
    </vehicle>
    <vehicle id="39" type="evehicle" depart="39.00">