<additional>
    <vType id="ev" vClass="evehicle" accel="2.6" decel="4.5" maxSpeed="160.0"  length="4.5" minGap="2.0"/>
</additional>
